12
BEN - input geometry
C        0.00000000       0.69500000       1.20500000
C        0.00000000      -0.69500000       1.20500000
C        0.00000000       1.39100000       0.00000000
H        0.00000000       1.23800000       2.14400000
C        0.00000000      -1.39100000       0.00000000
H        0.00000000      -1.23800000       2.14400000
C        0.00000000      -0.69500000      -1.20500000
H        0.00000000      -2.47500000       0.00000000
C        0.00000000       0.69500000      -1.20500000
H        0.00000000      -1.23800000      -2.14400000
H        0.00000000       1.23800000      -2.14400000
H        0.00000000       2.47500000       0.00000000
